---- qbsp / ericw-tools v0.18.1 ----
Input file: test-compile.map
Output file: test.bsp

---- LoadMapFile ----
*** WARNING 06: No info_player_deathmatch entities in level
           36 faces
            6 brushes
            3 entities
            2 unique texnames
           12 texinfo

Opened WAD: ../texture-wads/QUAKE101.WAD
Processing hull 0...
---- Brush_LoadEntity ----
            6 brushes
           12 planes
---- CSGFaces ----
           36 brushfaces
           24 csgfaces
           20 mergedfaces
---- SolidBSP ----
           24 split nodes
            6 solid leafs
           19 empty leafs
            0 water leafs
            0 detail leafs
            0 detail illusionary leafs
            0 detail fence leafs
            0 illusionary visblocker leafs
           35 leaffaces
           35 nodefaces
---- Portalize ----
           19 vis leafs
           19 vis clusters
           44 vis portals
---- FillOutside ----
           18 outleafs
---- MergeAll ----
            6 mergefaces
---- SolidBSP ----
            6 split nodes
            6 solid leafs
            1 empty leafs
            0 water leafs
            0 detail leafs
            0 detail illusionary leafs
            0 detail fence leafs
            0 illusionary visblocker leafs
            6 leaffaces
            6 nodefaces
---- Portalize ----
            1 vis leafs
            1 vis clusters
            0 vis portals
---- Tjunc ----
           12 world edges
           24 edge points
            0 edges added by tjunctions
            0 faces added by tjunctions
---- MakeFaceEdges ----
---- GrowRegions ----
Processing hull 1...
Processing hull 2...
*** WARNING 16: Texture __TB_empty not found
---- WriteBSPFile ----
Wrote test.bsp
           17 planes              340
            8 vertexes             96
            6 nodes               144
            6 texinfo             240
            6 faces               120
           12 clipnodes            96
            2 leafs                56
            6 marksurfaces         12
           24 surfedges            96
           13 edges                52
            2 textures           5492
              lightdata             0
              visdata               0
              entdata             281

0.004 seconds elapsed
Peak memory usage: 190452 (186.0k)
